/*--------------------------------*- C++ -*----------------------------------*\
| =========                 |                                                 |
| \\      /  F ield         | foam-extend: Open Source CFD                    |
|  \\    /   O peration     | Version:     4.0                                |
|   \\  /    A nd           | Web:         http://www.foam-extend.org         |
|    \\/     M anipulation  |                                                 |
\*---------------------------------------------------------------------------*/
FoamFile
{
    version     2.0;
    format      ascii;
    class       dictionary;
    object      thermalProperties;
}
// * * * * * * * * * * * * * * * * * * * * * * * * * * * * * * * * * * * * * //

thermal
{
    //Extruded aluminum
    type            constant;
    rho             rho [1 -3 0 0 0] 2700;
    C               C [0 2 -2 -1 0] 900; //Should not be important in steady-state
    k               k [1 1 -3 -1  0] 200;

    gaps
    (
    );

    sources
    (
//        solidBlock
//        {
//            type            constant;
//            S               S [1 -2 -3 0 0 0 0] 500;
//            zones           ( solidBlock );
//        }
    );
}


// ************************************************************************* //
