/*--------------------------------*- C++ -*----------------------------------*\
| =========                 |                                                 |
| \\      /  F ield         | OpenFOAM: The Open Source CFD Toolbox           |
|  \\    /   O peration     | Version:  4.1                                   |
|   \\  /    A nd           | Web:      www.OpenFOAM.org                      |
|    \\/     M anipulation  |                                                 |
\*---------------------------------------------------------------------------*/
FoamFile
{
    version     2.0;
    format      ascii;
    class       volScalarField;
    location    "0";
    object      omega;
}
// * * * * * * * * * * * * * * * * * * * * * * * * * * * * * * * * * * * * * //

dimensions      [0 0 -1 0 0 0 0];

internalField   uniform 10;

boundaryField
{
    walls
    {
        type            omegaWallFunction;
        value           uniform 10;
    }
    outlet
    {
        type            inletOutlet;
        inletValue      uniform 10;
        value           uniform 10;
    }
    inlet
    {
        type            fixedValue;
        value           uniform 10;
    }
}


// ************************************************************************* //
