/*--------------------------------*- C++ -*----------------------------------*\
| =========                 |                                                 |
| \\      /  F ield         | foam-extend: Open Source CFD                    |
|  \\    /   O peration     | Version:     4.0                                |
|   \\  /    A nd           | Web:         http://www.foam-extend.org         |
|    \\/     M anipulation  |                                                 |
\*---------------------------------------------------------------------------*/
FoamFile
{
    version     2.0;
    format      ascii;
    class       volScalarField;
    location    "0/solid";
    object      T;
}
// * * * * * * * * * * * * * * * * * * * * * * * * * * * * * * * * * * * * * //

dimensions      [0 0 0 1 0 0 0];

internalField   uniform 315;

boundaryField
{
    heat_in
    {
	type groovyBC;
	value uniform 0;
	gradientExpression "gradT";
	fractionExpression "0";
	variables "htc=50+(100*time());Tinf=315;k=200;gradT=htc/k*(Tinf-T);";
    }
    heat_out
    {
        type            externalWallHeatFluxTemperature;
        //mode            power;
        q               10000;                 // flux / [W per m2]
        value           uniform 315;         // Initial temperature / [K]
        kappaMethod     solidThermo;
    }
    solid_walls
    {
        type            zeroGradient;
    }
}


// ************************************************************************* //
