/*--------------------------------*- C++ -*----------------------------------*\
| =========                 |                                                 |
| \\      /  F ield         | OpenFOAM: The Open Source CFD Toolbox           |
|  \\    /   O peration     | Version:  dev                                   |
|   \\  /    A nd           | Web:      www.OpenFOAM.org                      |
|    \\/     M anipulation  |                                                 |
\*---------------------------------------------------------------------------*/
FoamFile
{
    version     2.0;
    format      ascii;
    class       dictionary;
    object      fvSolution;
}
// * * * * * * * * * * * * * * * * * * * * * * * * * * * * * * * * * * * * * //

SIMPLE
{
    residualControl
    {
        p_rgh           1e-5;
        U               1e-5;
        T               1e-5;
        h               1e-5;

        // possibly check turbulence fields
        "(k|epsilon|omega)" 1e-3;
    }
}
PIMPLE
{
    nOuterCorrectors 2;
    nCorrectors 2;
}

// ************************************************************************* //
